9

H          1.62654       -0.03769        0.84561
C          1.01120       -0.04529       -0.06260
H          1.32526        0.80309       -0.68470
H          1.25012       -0.96118       -0.61889
C         -0.46208        0.03063        0.29470
H         -0.75800       -0.82632        0.93156
H         -0.68222        0.95369        0.86656
O         -1.19813        0.01809       -0.90724
H         -2.11270        0.06498       -0.66499
