     9
 geometry
 H                     1.84148199    -0.04054639     1.05562566
 C                     1.22796154    -0.04719231     0.13653846
 H1                    1.52298700     0.80774346    -0.48318597
 H                     1.45023560    -0.97597674    -0.41943267
 C                    -0.24658114     0.02674906     0.49699180
 H                    -0.53214380    -0.83435342     1.13426321
 H                    -0.45867790     0.95253641     1.06967319
 O                    -1.01608159     0.01514031    -0.72757610
 H                    -1.95656338     0.06291356    -0.47991529
