          76
 
 C    2.1437422290    2.3441452212    1.1272507281
 C    1.7985740421    1.9627949914    2.3889238856
 C    0.8489548345    0.9277876639    2.7492175912
 C    0.4748639400    0.5191702952    4.0196677629
 H    0.8734601941    0.9552165963    4.9242822325
 C    3.0701926395    3.3481138621    0.6754992117
 H    3.6534777876    3.9791221885    1.3250229122
 C    2.4672355573    2.6772342295    3.5179142310
 C    1.9284669826    3.8380049586    4.0695518616
 C    2.5303048142    4.4979022454    5.1327682450
 C    3.7042786328    3.9923863869    5.6747469523
 C    4.2657027896    2.8354715542    5.1512180655
 C    3.6440991388    2.1950323002    4.0878031738
 O    1.5967766790    1.7550714150    0.0000000000
 F    0.7994738999    4.3506454430    3.5717255692
 F    1.9923671674    5.6104356802    5.6344204122
 F    4.2918333067    4.6169139074    6.6924915403
 F    5.3949292717    2.3512837709    5.6699704524
 F    4.2104812532    1.0847158602    3.6066498958
 S    0.0000000000    0.0000000000    1.5633365670
 C   -2.1437422290   -2.3441452212    1.1272507281
 C   -1.7985740421   -1.9627949914    2.3889238856
 C   -0.8489548345   -0.9277876639    2.7492175912
 C   -0.4748639400   -0.5191702952    4.0196677629
 H   -0.8734601941   -0.9552165963    4.9242822325
 C   -3.0701926395   -3.3481138621    0.6754992117
 H   -3.6534777876   -3.9791221885    1.3250229122
 C   -2.4672355573   -2.6772342295    3.5179142310
 C   -1.9284669826   -3.8380049586    4.0695518616
 C   -2.5303048142   -4.4979022454    5.1327682450
 C   -3.7042786328   -3.9923863869    5.6747469523
 C   -4.2657027896   -2.8354715542    5.1512180655
 C   -3.6440991388   -2.1950323002    4.0878031738
 O   -1.5967766790   -1.7550714150    0.0000000000
 F   -0.7994738999   -4.3506454430    3.5717255692
 F   -1.9923671674   -5.6104356802    5.6344204122
 F   -4.2918333067   -4.6169139074    6.6924915403
 F   -5.3949292717   -2.3512837709    5.6699704524
 F   -4.2104812532   -1.0847158602    3.6066498958
 C   -2.1437422290   -2.3441452212   -1.1272507281
 C   -1.7985740421   -1.9627949914   -2.3889238856
 C   -0.8489548345   -0.9277876639   -2.7492175912
 C   -0.4748639400   -0.5191702952   -4.0196677629
 H   -0.8734601941   -0.9552165963   -4.9242822325
 C   -3.0701926395   -3.3481138621   -0.6754992117
 H   -3.6534777876   -3.9791221885   -1.3250229122
 C   -2.4672355573   -2.6772342295   -3.5179142310
 C   -1.9284669826   -3.8380049586   -4.0695518616
 C   -2.5303048142   -4.4979022454   -5.1327682450
 C   -3.7042786328   -3.9923863869   -5.6747469523
 C   -4.2657027896   -2.8354715542   -5.1512180655
 C   -3.6440991388   -2.1950323002   -4.0878031738
 F   -0.7994738999   -4.3506454430   -3.5717255692
 F   -1.9923671674   -5.6104356802   -5.6344204122
 F   -4.2918333067   -4.6169139074   -6.6924915403
 F   -5.3949292717   -2.3512837709   -5.6699704524
 F   -4.2104812532   -1.0847158602   -3.6066498958
 S    0.0000000000    0.0000000000   -1.5633365670
 C    2.1437422290    2.3441452212   -1.1272507281
 C    1.7985740421    1.9627949914   -2.3889238856
 C    0.8489548345    0.9277876639   -2.7492175912
 C    0.4748639400    0.5191702952   -4.0196677629
 H    0.8734601941    0.9552165963   -4.9242822325
 C    3.0701926395    3.3481138621   -0.6754992117
 H    3.6534777876    3.9791221885   -1.3250229122
 C    2.4672355573    2.6772342295   -3.5179142310
 C    1.9284669826    3.8380049586   -4.0695518616
 C    2.5303048142    4.4979022454   -5.1327682450
 C    3.7042786328    3.9923863869   -5.6747469523
 C    4.2657027896    2.8354715542   -5.1512180655
 C    3.6440991388    2.1950323002   -4.0878031738
 F    0.7994738999    4.3506454430   -3.5717255692
 F    1.9923671674    5.6104356802   -5.6344204122
 F    4.2918333067    4.6169139074   -6.6924915403
 F    5.3949292717    2.3512837709   -5.6699704524
 F    4.2104812532    1.0847158602   -3.6066498958
